* Z:\home\chrisg\PCBs\LoudMouth\SPICE\ClassBvsClassAB.asc
Q1 N001 N003 N005 0 2N3904
Q2 N005 N008 N009 0 2N3906
V1 N001 0 5
V2 N007 0 SINE(0 2 10)
R1 N005 0 8
V3 0 N009 5
R2 N008 N009 10
D1 N003 N007 1N4148
R3 N001 N003 100
D2 N007 N008 1N4148
Q3 N002 N004 N006 0 2N3904
Q4 N006 N004 N010 0 2N3906
V4 N002 0 5
V5 N004 0 SINE(0 2 10)
R4 N006 0 8
V6 0 N010 5
.model D D
.lib C:\Program Files (x86)\LTC\LTspiceIV\lib\cmp\standard.dio
.model NPN NPN
.model PNP PNP
.lib C:\Program Files (x86)\LTC\LTspiceIV\lib\cmp\standard.bjt
.tran 0 1 0
* CLASS B
* CLASS AB
.backanno
.end
